1_Yearly_simulation_with_lines_losses/ACN_Infrastructure_VLN_elem.Txt

NODE-GROUND VOLTAGES BY CIRCUIT ELEMENT

Power Delivery Elements

Bus               (node ref)  Phase    Magnitude, kV (pu)    Angle

ELEMENT = "Vsource.SOURCE"
UTILITY_COMPANY    (  1)    1           5.7733 (   48.08) /_    0.0
UTILITY_COMPANY    (  2)    2           5.7733 (   48.08) /_ -120.0
UTILITY_COMPANY    (  3)    3           5.7735 (   48.08) /_  120.0
------------
UTILITY_COMPANY    (  0)    0                0 (       0) /_    0.0
UTILITY_COMPANY    (  0)    0                0 (       0) /_    0.0
UTILITY_COMPANY    (  0)    0                0 (       0) /_    0.0

ELEMENT = "Line.LINE_0"
MAIN_SWITCH_PANEL  (  4)    1          0.27661 (   2.303) /_   -0.7
MAIN_SWITCH_PANEL  (  5)    2          0.27628 (   2.301) /_ -120.5
MAIN_SWITCH_PANEL  (  6)    3          0.27733 (   2.309) /_  119.5
------------
DCFC               (  7)    1          0.27661 (   2.303) /_   -0.7
DCFC               (  8)    2          0.27628 (   2.301) /_ -120.5
DCFC               (  9)    3          0.27733 (   2.309) /_  119.5

ELEMENT = "Line.LINE_1"
SWITCH_PANEL_1     ( 10)    1          0.12073 (   1.005) /_  -35.0
SWITCH_PANEL_1     ( 11)    2          0.11724 (  0.9763) /_ -154.8
SWITCH_PANEL_1     ( 12)    3          0.11943 (  0.9945) /_   86.5
------------
5                  ( 13)    1          0.12017 (   1.001) /_  -35.1
5                  ( 14)    2          0.11666 (  0.9714) /_ -154.8
5                  ( 15)    3          0.11902 (  0.9911) /_   86.5

ELEMENT = "Line.LINE_2"
SWITCH_PANEL_1     ( 10)    1          0.12073 (   1.005) /_  -35.0
SWITCH_PANEL_1     ( 11)    2          0.11724 (  0.9763) /_ -154.8
SWITCH_PANEL_1     ( 12)    3          0.11943 (  0.9945) /_   86.5
------------
17                 ( 16)    1          0.12017 (   1.001) /_  -35.1
17                 ( 17)    2          0.11666 (  0.9714) /_ -154.8
17                 ( 18)    3          0.11902 (  0.9911) /_   86.5

ELEMENT = "Line.LINE_3"
SWITCH_PANEL_1     ( 10)    1          0.12073 (   1.005) /_  -35.0
SWITCH_PANEL_1     ( 11)    2          0.11724 (  0.9763) /_ -154.8
SWITCH_PANEL_1     ( 12)    3          0.11943 (  0.9945) /_   86.5
------------
2X19               ( 19)    1          0.12048 (   1.003) /_  -35.2
2X19               ( 20)    2          0.11693 (  0.9737) /_ -155.0
2X19               ( 21)    3          0.11913 (   0.992) /_   86.4

ELEMENT = "Line.LINE_4"
2X19               ( 19)    1          0.12048 (   1.003) /_  -35.2
2X19               ( 20)    2          0.11693 (  0.9737) /_ -155.0
2X19               ( 21)    3          0.11913 (   0.992) /_   86.4
------------
26                 ( 22)    1             0.12 (  0.9992) /_  -35.3
26                 ( 23)    2          0.11643 (  0.9695) /_ -155.0
26                 ( 24)    3          0.11875 (  0.9889) /_   86.4

ELEMENT = "Line.LINE_5"
2X19               ( 19)    1          0.12048 (   1.003) /_  -35.2
2X19               ( 20)    2          0.11693 (  0.9737) /_ -155.0
2X19               ( 21)    3          0.11913 (   0.992) /_   86.4
------------
25                 ( 25)    1             0.12 (  0.9992) /_  -35.3
25                 ( 26)    2          0.11643 (  0.9695) /_ -155.0
25                 ( 27)    3          0.11875 (  0.9889) /_   86.4

ELEMENT = "Line.LINE_6"
26                 ( 22)    1             0.12 (  0.9992) /_  -35.3
26                 ( 23)    2          0.11643 (  0.9695) /_ -155.0
26                 ( 24)    3          0.11875 (  0.9889) /_   86.4
------------
32                 ( 28)    1          0.11923 (  0.9929) /_  -35.6
32                 ( 29)    2          0.11547 (  0.9616) /_ -154.8
32                 ( 30)    3          0.11864 (  0.9879) /_   86.4

ELEMENT = "Line.LINE_7"
26                 ( 22)    1             0.12 (  0.9992) /_  -35.3
26                 ( 23)    2          0.11643 (  0.9695) /_ -155.0
26                 ( 24)    3          0.11875 (  0.9889) /_   86.4
------------
47                 ( 31)    1          0.11949 (   0.995) /_  -35.2
47                 ( 32)    2          0.11611 (  0.9669) /_ -155.1
47                 ( 33)    3          0.11793 (   0.982) /_   86.3

ELEMENT = "Line.LINE_8"
25                 ( 25)    1             0.12 (  0.9992) /_  -35.3
25                 ( 26)    2          0.11643 (  0.9695) /_ -155.0
25                 ( 27)    3          0.11875 (  0.9889) /_   86.4
------------
61                 ( 34)    1          0.11923 (  0.9929) /_  -35.6
61                 ( 35)    2          0.11547 (  0.9616) /_ -154.8
61                 ( 36)    3          0.11864 (  0.9879) /_   86.4

ELEMENT = "Line.LINE_9"
25                 ( 25)    1             0.12 (  0.9992) /_  -35.3
25                 ( 26)    2          0.11643 (  0.9695) /_ -155.0
25                 ( 27)    3          0.11875 (  0.9889) /_   86.4
------------
76                 ( 37)    1          0.11949 (   0.995) /_  -35.2
76                 ( 38)    2          0.11611 (  0.9669) /_ -155.1
76                 ( 39)    3          0.11793 (   0.982) /_   86.3

ELEMENT = "Line.LINE_10"
5                  ( 13)    1          0.12017 (   1.001) /_  -35.1
5                  ( 14)    2          0.11666 (  0.9714) /_ -154.8
5                  ( 15)    3          0.11902 (  0.9911) /_   86.5
------------
6                  ( 40)    1          0.12005 (  0.9997) /_  -35.2
6                  ( 41)    2          0.11655 (  0.9706) /_ -154.8
6                  ( 42)    3          0.11895 (  0.9905) /_   86.5

ELEMENT = "Line.LINE_11"
6                  ( 40)    1          0.12005 (  0.9997) /_  -35.2
6                  ( 41)    2          0.11655 (  0.9706) /_ -154.8
6                  ( 42)    3          0.11895 (  0.9905) /_   86.5
------------
7                  ( 43)    1          0.11995 (  0.9988) /_  -35.2
7                  ( 44)    2           0.1165 (  0.9701) /_ -154.8
7                  ( 45)    3           0.1189 (  0.9901) /_   86.5

ELEMENT = "Line.LINE_12"
7                  ( 43)    1          0.11995 (  0.9988) /_  -35.2
7                  ( 44)    2           0.1165 (  0.9701) /_ -154.8
7                  ( 45)    3           0.1189 (  0.9901) /_   86.5
------------
8                  ( 46)    1           0.1199 (  0.9984) /_  -35.2
8                  ( 47)    2          0.11647 (  0.9699) /_ -154.8
8                  ( 48)    3          0.11888 (  0.9899) /_   86.5

ELEMENT = "Line.LINE_13"
5                  ( 13)    1          0.12017 (   1.001) /_  -35.1
5                  ( 14)    2          0.11666 (  0.9714) /_ -154.8
5                  ( 15)    3          0.11902 (  0.9911) /_   86.5
------------
1                  ( 49)    1          0.12014 (       1) /_  -35.1
1                  ( 50)    2          0.11663 (  0.9712) /_ -154.8
1                  ( 51)    3          0.11902 (  0.9911) /_   86.5

ELEMENT = "Line.LINE_14"
5                  ( 13)    1          0.12017 (   1.001) /_  -35.1
5                  ( 14)    2          0.11666 (  0.9714) /_ -154.8
5                  ( 15)    3          0.11902 (  0.9911) /_   86.5
------------
9                  ( 52)    1          0.12017 (   1.001) /_  -35.1
9                  ( 53)    2          0.11663 (  0.9712) /_ -154.8
9                  ( 54)    3          0.11899 (  0.9909) /_   86.5

ELEMENT = "Line.LINE_15"
6                  ( 40)    1          0.12005 (  0.9997) /_  -35.2
6                  ( 41)    2          0.11655 (  0.9706) /_ -154.8
6                  ( 42)    3          0.11895 (  0.9905) /_   86.5
------------
2                  ( 55)    1          0.12002 (  0.9994) /_  -35.2
2                  ( 56)    2          0.11652 (  0.9703) /_ -154.8
2                  ( 57)    3          0.11895 (  0.9905) /_   86.5

ELEMENT = "Line.LINE_16"
6                  ( 40)    1          0.12005 (  0.9997) /_  -35.2
6                  ( 41)    2          0.11655 (  0.9706) /_ -154.8
6                  ( 42)    3          0.11895 (  0.9905) /_   86.5
------------
10                 ( 58)    1          0.12005 (  0.9997) /_  -35.2
10                 ( 59)    2          0.11653 (  0.9703) /_ -154.8
10                 ( 60)    3          0.11892 (  0.9902) /_   86.5

ELEMENT = "Line.LINE_17"
7                  ( 43)    1          0.11995 (  0.9988) /_  -35.2
7                  ( 44)    2           0.1165 (  0.9701) /_ -154.8
7                  ( 45)    3           0.1189 (  0.9901) /_   86.5
------------
3                  ( 61)    1          0.11992 (  0.9986) /_  -35.2
3                  ( 62)    2          0.11647 (  0.9699) /_ -154.8
3                  ( 63)    3           0.1189 (  0.9901) /_   86.5

ELEMENT = "Line.LINE_18"
7                  ( 43)    1          0.11995 (  0.9988) /_  -35.2
7                  ( 44)    2           0.1165 (  0.9701) /_ -154.8
7                  ( 45)    3           0.1189 (  0.9901) /_   86.5
------------
11                 ( 64)    1          0.11992 (  0.9986) /_  -35.2
11                 ( 65)    2           0.1165 (  0.9701) /_ -154.8
11                 ( 66)    3          0.11887 (  0.9899) /_   86.5

ELEMENT = "Line.LINE_19"
8                  ( 46)    1           0.1199 (  0.9984) /_  -35.2
8                  ( 47)    2          0.11647 (  0.9699) /_ -154.8
8                  ( 48)    3          0.11888 (  0.9899) /_   86.5
------------
4                  ( 67)    1          0.11987 (  0.9982) /_  -35.2
4                  ( 68)    2          0.11644 (  0.9696) /_ -154.8
4                  ( 69)    3          0.11888 (  0.9899) /_   86.5

ELEMENT = "Line.LINE_20"
8                  ( 46)    1           0.1199 (  0.9984) /_  -35.2
8                  ( 47)    2          0.11647 (  0.9699) /_ -154.8
8                  ( 48)    3          0.11888 (  0.9899) /_   86.5
------------
12                 ( 70)    1          0.11987 (  0.9981) /_  -35.2
12                 ( 71)    2          0.11647 (  0.9699) /_ -154.8
12                 ( 72)    3          0.11885 (  0.9897) /_   86.4

ELEMENT = "Line.LINE_21"
17                 ( 16)    1          0.12017 (   1.001) /_  -35.1
17                 ( 17)    2          0.11666 (  0.9714) /_ -154.8
17                 ( 18)    3          0.11902 (  0.9911) /_   86.5
------------
18                 ( 73)    1          0.12005 (  0.9997) /_  -35.2
18                 ( 74)    2          0.11655 (  0.9706) /_ -154.8
18                 ( 75)    3          0.11895 (  0.9905) /_   86.5

ELEMENT = "Line.LINE_22"
18                 ( 73)    1          0.12005 (  0.9997) /_  -35.2
18                 ( 74)    2          0.11655 (  0.9706) /_ -154.8
18                 ( 75)    3          0.11895 (  0.9905) /_   86.5
------------
19                 ( 76)    1          0.11995 (  0.9988) /_  -35.2
19                 ( 77)    2           0.1165 (  0.9701) /_ -154.8
19                 ( 78)    3           0.1189 (  0.9901) /_   86.5

ELEMENT = "Line.LINE_23"
19                 ( 76)    1          0.11995 (  0.9988) /_  -35.2
19                 ( 77)    2           0.1165 (  0.9701) /_ -154.8
19                 ( 78)    3           0.1189 (  0.9901) /_   86.5
------------
20                 ( 79)    1           0.1199 (  0.9984) /_  -35.2
20                 ( 80)    2          0.11647 (  0.9699) /_ -154.8
20                 ( 81)    3          0.11888 (  0.9899) /_   86.5

ELEMENT = "Line.LINE_24"
17                 ( 16)    1          0.12017 (   1.001) /_  -35.1
17                 ( 17)    2          0.11666 (  0.9714) /_ -154.8
17                 ( 18)    3          0.11902 (  0.9911) /_   86.5
------------
13                 ( 82)    1          0.12014 (       1) /_  -35.1
13                 ( 83)    2          0.11663 (  0.9712) /_ -154.8
13                 ( 84)    3          0.11902 (  0.9911) /_   86.5

ELEMENT = "Line.LINE_25"
17                 ( 16)    1          0.12017 (   1.001) /_  -35.1
17                 ( 17)    2          0.11666 (  0.9714) /_ -154.8
17                 ( 18)    3          0.11902 (  0.9911) /_   86.5
------------
21                 ( 85)    1          0.12017 (   1.001) /_  -35.1
21                 ( 86)    2          0.11663 (  0.9712) /_ -154.8
21                 ( 87)    3          0.11899 (  0.9909) /_   86.5

ELEMENT = "Line.LINE_26"
18                 ( 73)    1          0.12005 (  0.9997) /_  -35.2
18                 ( 74)    2          0.11655 (  0.9706) /_ -154.8
18                 ( 75)    3          0.11895 (  0.9905) /_   86.5
------------
14                 ( 88)    1          0.12002 (  0.9994) /_  -35.2
14                 ( 89)    2          0.11652 (  0.9703) /_ -154.8
14                 ( 90)    3          0.11895 (  0.9905) /_   86.5

ELEMENT = "Line.LINE_27"
18                 ( 73)    1          0.12005 (  0.9997) /_  -35.2
18                 ( 74)    2          0.11655 (  0.9706) /_ -154.8
18                 ( 75)    3          0.11895 (  0.9905) /_   86.5
------------
22                 ( 91)    1          0.12005 (  0.9997) /_  -35.2
22                 ( 92)    2          0.11653 (  0.9703) /_ -154.8
22                 ( 93)    3          0.11892 (  0.9902) /_   86.5

ELEMENT = "Line.LINE_28"
19                 ( 76)    1          0.11995 (  0.9988) /_  -35.2
19                 ( 77)    2           0.1165 (  0.9701) /_ -154.8
19                 ( 78)    3           0.1189 (  0.9901) /_   86.5
------------
15                 ( 94)    1          0.11992 (  0.9986) /_  -35.2
15                 ( 95)    2          0.11647 (  0.9699) /_ -154.8
15                 ( 96)    3           0.1189 (  0.9901) /_   86.5

ELEMENT = "Line.LINE_29"
19                 ( 76)    1          0.11995 (  0.9988) /_  -35.2
19                 ( 77)    2           0.1165 (  0.9701) /_ -154.8
19                 ( 78)    3           0.1189 (  0.9901) /_   86.5
------------
23                 ( 97)    1          0.11992 (  0.9986) /_  -35.2
23                 ( 98)    2           0.1165 (  0.9701) /_ -154.8
23                 ( 99)    3          0.11887 (  0.9899) /_   86.5

ELEMENT = "Line.LINE_30"
20                 ( 79)    1           0.1199 (  0.9984) /_  -35.2
20                 ( 80)    2          0.11647 (  0.9699) /_ -154.8
20                 ( 81)    3          0.11888 (  0.9899) /_   86.5
------------
16                 (100)    1          0.11987 (  0.9982) /_  -35.2
16                 (101)    2          0.11644 (  0.9696) /_ -154.8
16                 (102)    3          0.11888 (  0.9899) /_   86.5

ELEMENT = "Line.LINE_31"
20                 ( 79)    1           0.1199 (  0.9984) /_  -35.2
20                 ( 80)    2          0.11647 (  0.9699) /_ -154.8
20                 ( 81)    3          0.11888 (  0.9899) /_   86.5
------------
24                 (103)    1          0.11987 (  0.9981) /_  -35.2
24                 (104)    2          0.11647 (  0.9699) /_ -154.8
24                 (105)    3          0.11885 (  0.9897) /_   86.4

ELEMENT = "Line.LINE_32"
32                 ( 28)    1          0.11923 (  0.9929) /_  -35.6
32                 ( 29)    2          0.11547 (  0.9616) /_ -154.8
32                 ( 30)    3          0.11864 (  0.9879) /_   86.4
------------
33                 (106)    1          0.11893 (  0.9903) /_  -35.7
33                 (107)    2          0.11508 (  0.9583) /_ -154.8
33                 (108)    3          0.11858 (  0.9875) /_   86.4

ELEMENT = "Line.LINE_33"
33                 (106)    1          0.11893 (  0.9903) /_  -35.7
33                 (107)    2          0.11508 (  0.9583) /_ -154.8
33                 (108)    3          0.11858 (  0.9875) /_   86.4
------------
34                 (109)    1          0.11871 (  0.9885) /_  -35.8
34                 (110)    2          0.11478 (  0.9558) /_ -154.7
34                 (111)    3          0.11853 (   0.987) /_   86.4

ELEMENT = "Line.LINE_34"
34                 (109)    1          0.11871 (  0.9885) /_  -35.8
34                 (110)    2          0.11478 (  0.9558) /_ -154.7
34                 (111)    3          0.11853 (   0.987) /_   86.4
------------
35                 (112)    1          0.11858 (  0.9874) /_  -35.8
35                 (113)    2          0.11459 (  0.9542) /_ -154.7
35                 (114)    3          0.11847 (  0.9866) /_   86.4

ELEMENT = "Line.LINE_35"
35                 (112)    1          0.11858 (  0.9874) /_  -35.8
35                 (113)    2          0.11459 (  0.9542) /_ -154.7
35                 (114)    3          0.11847 (  0.9866) /_   86.4
------------
36                 (115)    1          0.11853 (  0.9871) /_  -35.8
36                 (116)    2           0.1145 (  0.9534) /_ -154.7
36                 (117)    3          0.11842 (  0.9861) /_   86.4

ELEMENT = "Line.LINE_36"
32                 ( 28)    1          0.11923 (  0.9929) /_  -35.6
32                 ( 29)    2          0.11547 (  0.9616) /_ -154.8
32                 ( 30)    3          0.11864 (  0.9879) /_   86.4
------------
27                 (118)    1          0.11921 (  0.9927) /_  -35.6
27                 (119)    2          0.11544 (  0.9613) /_ -154.8
27                 (120)    3          0.11864 (  0.9879) /_   86.4

ELEMENT = "Line.LINE_37"
32                 ( 28)    1          0.11923 (  0.9929) /_  -35.6
32                 ( 29)    2          0.11547 (  0.9616) /_ -154.8
32                 ( 30)    3          0.11864 (  0.9879) /_   86.4
------------
37                 (121)    1          0.11921 (  0.9927) /_  -35.6
37                 (122)    2          0.11544 (  0.9613) /_ -154.8
37                 (123)    3          0.11864 (  0.9879) /_   86.4

ELEMENT = "Line.LINE_38"
33                 (106)    1          0.11893 (  0.9903) /_  -35.7
33                 (107)    2          0.11508 (  0.9583) /_ -154.8
33                 (108)    3          0.11858 (  0.9875) /_   86.4
------------
28                 (124)    1           0.1189 (  0.9901) /_  -35.7
28                 (125)    2          0.11505 (   0.958) /_ -154.8
28                 (126)    3          0.11858 (  0.9875) /_   86.4

ELEMENT = "Line.LINE_39"
33                 (106)    1          0.11893 (  0.9903) /_  -35.7
33                 (107)    2          0.11508 (  0.9583) /_ -154.8
33                 (108)    3          0.11858 (  0.9875) /_   86.4
------------
38                 (127)    1           0.1189 (  0.9901) /_  -35.7
38                 (128)    2          0.11505 (   0.958) /_ -154.8
38                 (129)    3          0.11858 (  0.9875) /_   86.4

ELEMENT = "Line.LINE_40"
34                 (109)    1          0.11871 (  0.9885) /_  -35.8
34                 (110)    2          0.11478 (  0.9558) /_ -154.7
34                 (111)    3          0.11853 (   0.987) /_   86.4
------------
29                 (130)    1          0.11868 (  0.9883) /_  -35.8
29                 (131)    2          0.11476 (  0.9556) /_ -154.7
29                 (132)    3          0.11853 (   0.987) /_   86.4

ELEMENT = "Line.LINE_41"
34                 (109)    1          0.11871 (  0.9885) /_  -35.8
34                 (110)    2          0.11478 (  0.9558) /_ -154.7
34                 (111)    3          0.11853 (   0.987) /_   86.4
------------
39                 (133)    1          0.11868 (  0.9883) /_  -35.8
39                 (134)    2          0.11476 (  0.9556) /_ -154.7
39                 (135)    3          0.11853 (   0.987) /_   86.4

ELEMENT = "Line.LINE_42"
35                 (112)    1          0.11858 (  0.9874) /_  -35.8
35                 (113)    2          0.11459 (  0.9542) /_ -154.7
35                 (114)    3          0.11847 (  0.9866) /_   86.4
------------
30                 (136)    1          0.11855 (  0.9872) /_  -35.8
30                 (137)    2          0.11456 (   0.954) /_ -154.7
30                 (138)    3          0.11847 (  0.9865) /_   86.4

ELEMENT = "Line.LINE_43"
35                 (112)    1          0.11858 (  0.9874) /_  -35.8
35                 (113)    2          0.11459 (  0.9542) /_ -154.7
35                 (114)    3          0.11847 (  0.9866) /_   86.4
------------
40                 (139)    1          0.11855 (  0.9872) /_  -35.8
40                 (140)    2          0.11456 (   0.954) /_ -154.7
40                 (141)    3          0.11847 (  0.9865) /_   86.4

ELEMENT = "Line.LINE_44"
36                 (115)    1          0.11853 (  0.9871) /_  -35.8
36                 (116)    2           0.1145 (  0.9534) /_ -154.7
36                 (117)    3          0.11842 (  0.9861) /_   86.4
------------
31                 (142)    1          0.11851 (  0.9868) /_  -35.9
31                 (143)    2          0.11447 (  0.9532) /_ -154.7
31                 (144)    3          0.11842 (  0.9861) /_   86.4

ELEMENT = "Line.LINE_45"
36                 (115)    1          0.11853 (  0.9871) /_  -35.8
36                 (116)    2           0.1145 (  0.9534) /_ -154.7
36                 (117)    3          0.11842 (  0.9861) /_   86.4
------------
41                 (145)    1          0.11853 (  0.9871) /_  -35.8
41                 (146)    2          0.11447 (  0.9532) /_ -154.7
41                 (147)    3          0.11839 (  0.9859) /_   86.4

ELEMENT = "Line.LINE_46"
47                 ( 31)    1          0.11949 (   0.995) /_  -35.2
47                 ( 32)    2          0.11611 (  0.9669) /_ -155.1
47                 ( 33)    3          0.11793 (   0.982) /_   86.3
------------
48                 (148)    1          0.11928 (  0.9933) /_  -35.2
48                 (149)    2          0.11598 (  0.9658) /_ -155.2
48                 (150)    3          0.11759 (  0.9792) /_   86.2

ELEMENT = "Line.LINE_47"
48                 (148)    1          0.11928 (  0.9933) /_  -35.2
48                 (149)    2          0.11598 (  0.9658) /_ -155.2
48                 (150)    3          0.11759 (  0.9792) /_   86.2
------------
49                 (151)    1          0.11913 (   0.992) /_  -35.2
49                 (152)    2           0.1159 (  0.9651) /_ -155.2
49                 (153)    3          0.11736 (  0.9773) /_   86.2

ELEMENT = "Line.LINE_48"
49                 (151)    1          0.11913 (   0.992) /_  -35.2
49                 (152)    2           0.1159 (  0.9651) /_ -155.2
49                 (153)    3          0.11736 (  0.9773) /_   86.2
------------
50                 (154)    1          0.11902 (  0.9911) /_  -35.1
50                 (155)    2          0.11586 (  0.9648) /_ -155.2
50                 (156)    3          0.11722 (  0.9761) /_   86.2

ELEMENT = "Line.LINE_49"
50                 (154)    1          0.11902 (  0.9911) /_  -35.1
50                 (155)    2          0.11586 (  0.9648) /_ -155.2
50                 (156)    3          0.11722 (  0.9761) /_   86.2
------------
51                 (157)    1          0.11897 (  0.9907) /_  -35.1
51                 (158)    2          0.11586 (  0.9648) /_ -155.2
51                 (159)    3          0.11717 (  0.9757) /_   86.2

ELEMENT = "Line.LINE_50"
47                 ( 31)    1          0.11949 (   0.995) /_  -35.2
47                 ( 32)    2          0.11611 (  0.9669) /_ -155.1
47                 ( 33)    3          0.11793 (   0.982) /_   86.3
------------
42                 (160)    1          0.11949 (   0.995) /_  -35.2
42                 (161)    2          0.11608 (  0.9666) /_ -155.1
42                 (162)    3           0.1179 (  0.9818) /_   86.3

ELEMENT = "Line.LINE_51"
47                 ( 31)    1          0.11949 (   0.995) /_  -35.2
47                 ( 32)    2          0.11611 (  0.9669) /_ -155.1
47                 ( 33)    3          0.11793 (   0.982) /_   86.3
------------
52                 (163)    1          0.11946 (  0.9948) /_  -35.2
52                 (164)    2          0.11611 (  0.9669) /_ -155.1
52                 (165)    3           0.1179 (  0.9818) /_   86.3

ELEMENT = "Line.LINE_52"
48                 (148)    1          0.11928 (  0.9933) /_  -35.2
48                 (149)    2          0.11598 (  0.9658) /_ -155.2
48                 (150)    3          0.11759 (  0.9792) /_   86.2
------------
43                 (166)    1          0.11928 (  0.9933) /_  -35.2
43                 (167)    2          0.11596 (  0.9656) /_ -155.2
43                 (168)    3          0.11757 (   0.979) /_   86.2

ELEMENT = "Line.LINE_53"
48                 (148)    1          0.11928 (  0.9933) /_  -35.2
48                 (149)    2          0.11598 (  0.9658) /_ -155.2
48                 (150)    3          0.11759 (  0.9792) /_   86.2
------------
53                 (169)    1          0.11925 (   0.993) /_  -35.2
53                 (170)    2          0.11598 (  0.9658) /_ -155.2
53                 (171)    3          0.11757 (   0.979) /_   86.2

ELEMENT = "Line.LINE_54"
49                 (151)    1          0.11913 (   0.992) /_  -35.2
49                 (152)    2           0.1159 (  0.9651) /_ -155.2
49                 (153)    3          0.11736 (  0.9773) /_   86.2
------------
44                 (172)    1          0.11913 (   0.992) /_  -35.2
44                 (173)    2          0.11587 (  0.9649) /_ -155.2
44                 (174)    3          0.11733 (   0.977) /_   86.2

ELEMENT = "Line.LINE_55"
49                 (151)    1          0.11913 (   0.992) /_  -35.2
49                 (152)    2           0.1159 (  0.9651) /_ -155.2
49                 (153)    3          0.11736 (  0.9773) /_   86.2
------------
54                 (175)    1           0.1191 (  0.9917) /_  -35.1
54                 (176)    2           0.1159 (  0.9651) /_ -155.2
54                 (177)    3          0.11733 (   0.977) /_   86.2

ELEMENT = "Line.LINE_56"
50                 (154)    1          0.11902 (  0.9911) /_  -35.1
50                 (155)    2          0.11586 (  0.9648) /_ -155.2
50                 (156)    3          0.11722 (  0.9761) /_   86.2
------------
45                 (178)    1          0.11902 (  0.9911) /_  -35.1
45                 (179)    2          0.11583 (  0.9646) /_ -155.2
45                 (180)    3          0.11719 (  0.9758) /_   86.2

ELEMENT = "Line.LINE_57"
50                 (154)    1          0.11902 (  0.9911) /_  -35.1
50                 (155)    2          0.11586 (  0.9648) /_ -155.2
50                 (156)    3          0.11722 (  0.9761) /_   86.2
------------
55                 (181)    1          0.11899 (  0.9909) /_  -35.1
55                 (182)    2          0.11586 (  0.9648) /_ -155.2
55                 (183)    3          0.11719 (  0.9758) /_   86.2

ELEMENT = "Line.LINE_58"
51                 (157)    1          0.11897 (  0.9907) /_  -35.1
51                 (158)    2          0.11586 (  0.9648) /_ -155.2
51                 (159)    3          0.11717 (  0.9757) /_   86.2
------------
46                 (184)    1          0.11894 (  0.9904) /_  -35.1
46                 (185)    2          0.11586 (  0.9648) /_ -155.2
46                 (186)    3          0.11714 (  0.9755) /_   86.2

ELEMENT = "Line.LINE_59"
61                 ( 34)    1          0.11923 (  0.9929) /_  -35.6
61                 ( 35)    2          0.11547 (  0.9616) /_ -154.8
61                 ( 36)    3          0.11864 (  0.9879) /_   86.4
------------
62                 (187)    1          0.11893 (  0.9903) /_  -35.7
62                 (188)    2          0.11508 (  0.9583) /_ -154.8
62                 (189)    3          0.11858 (  0.9875) /_   86.4

ELEMENT = "Line.LINE_60"
62                 (187)    1          0.11893 (  0.9903) /_  -35.7
62                 (188)    2          0.11508 (  0.9583) /_ -154.8
62                 (189)    3          0.11858 (  0.9875) /_   86.4
------------
63                 (190)    1          0.11871 (  0.9885) /_  -35.8
63                 (191)    2          0.11478 (  0.9558) /_ -154.7
63                 (192)    3          0.11853 (   0.987) /_   86.4

ELEMENT = "Line.LINE_61"
63                 (190)    1          0.11871 (  0.9885) /_  -35.8
63                 (191)    2          0.11478 (  0.9558) /_ -154.7
63                 (192)    3          0.11853 (   0.987) /_   86.4
------------
64                 (193)    1          0.11858 (  0.9874) /_  -35.8
64                 (194)    2          0.11459 (  0.9542) /_ -154.7
64                 (195)    3          0.11847 (  0.9866) /_   86.4

ELEMENT = "Line.LINE_62"
64                 (193)    1          0.11858 (  0.9874) /_  -35.8
64                 (194)    2          0.11459 (  0.9542) /_ -154.7
64                 (195)    3          0.11847 (  0.9866) /_   86.4
------------
65                 (196)    1          0.11853 (  0.9871) /_  -35.8
65                 (197)    2           0.1145 (  0.9534) /_ -154.7
65                 (198)    3          0.11842 (  0.9861) /_   86.4

ELEMENT = "Line.LINE_63"
61                 ( 34)    1          0.11923 (  0.9929) /_  -35.6
61                 ( 35)    2          0.11547 (  0.9616) /_ -154.8
61                 ( 36)    3          0.11864 (  0.9879) /_   86.4
------------
56                 (199)    1          0.11921 (  0.9927) /_  -35.6
56                 (200)    2          0.11544 (  0.9613) /_ -154.8
56                 (201)    3          0.11864 (  0.9879) /_   86.4

ELEMENT = "Line.LINE_64"
61                 ( 34)    1          0.11923 (  0.9929) /_  -35.6
61                 ( 35)    2          0.11547 (  0.9616) /_ -154.8
61                 ( 36)    3          0.11864 (  0.9879) /_   86.4
------------
66                 (202)    1          0.11921 (  0.9927) /_  -35.6
66                 (203)    2          0.11544 (  0.9613) /_ -154.8
66                 (204)    3          0.11864 (  0.9879) /_   86.4

ELEMENT = "Line.LINE_65"
62                 (187)    1          0.11893 (  0.9903) /_  -35.7
62                 (188)    2          0.11508 (  0.9583) /_ -154.8
62                 (189)    3          0.11858 (  0.9875) /_   86.4
------------
57                 (205)    1           0.1189 (  0.9901) /_  -35.7
57                 (206)    2          0.11505 (   0.958) /_ -154.8
57                 (207)    3          0.11858 (  0.9875) /_   86.4

ELEMENT = "Line.LINE_66"
62                 (187)    1          0.11893 (  0.9903) /_  -35.7
62                 (188)    2          0.11508 (  0.9583) /_ -154.8
62                 (189)    3          0.11858 (  0.9875) /_   86.4
------------
67                 (208)    1           0.1189 (  0.9901) /_  -35.7
67                 (209)    2          0.11505 (   0.958) /_ -154.8
67                 (210)    3          0.11858 (  0.9875) /_   86.4

ELEMENT = "Line.LINE_67"
63                 (190)    1          0.11871 (  0.9885) /_  -35.8
63                 (191)    2          0.11478 (  0.9558) /_ -154.7
63                 (192)    3          0.11853 (   0.987) /_   86.4
------------
58                 (211)    1          0.11868 (  0.9883) /_  -35.8
58                 (212)    2          0.11476 (  0.9556) /_ -154.7
58                 (213)    3          0.11853 (   0.987) /_   86.4

ELEMENT = "Line.LINE_68"
63                 (190)    1          0.11871 (  0.9885) /_  -35.8
63                 (191)    2          0.11478 (  0.9558) /_ -154.7
63                 (192)    3          0.11853 (   0.987) /_   86.4
------------
68                 (214)    1          0.11868 (  0.9883) /_  -35.8
68                 (215)    2          0.11476 (  0.9556) /_ -154.7
68                 (216)    3          0.11853 (   0.987) /_   86.4

ELEMENT = "Line.LINE_69"
64                 (193)    1          0.11858 (  0.9874) /_  -35.8
64                 (194)    2          0.11459 (  0.9542) /_ -154.7
64                 (195)    3          0.11847 (  0.9866) /_   86.4
------------
59                 (217)    1          0.11855 (  0.9872) /_  -35.8
59                 (218)    2          0.11456 (   0.954) /_ -154.7
59                 (219)    3          0.11847 (  0.9865) /_   86.4

ELEMENT = "Line.LINE_70"
64                 (193)    1          0.11858 (  0.9874) /_  -35.8
64                 (194)    2          0.11459 (  0.9542) /_ -154.7
64                 (195)    3          0.11847 (  0.9866) /_   86.4
------------
69                 (220)    1          0.11855 (  0.9872) /_  -35.8
69                 (221)    2          0.11456 (   0.954) /_ -154.7
69                 (222)    3          0.11847 (  0.9865) /_   86.4

ELEMENT = "Line.LINE_71"
65                 (196)    1          0.11853 (  0.9871) /_  -35.8
65                 (197)    2           0.1145 (  0.9534) /_ -154.7
65                 (198)    3          0.11842 (  0.9861) /_   86.4
------------
60                 (223)    1          0.11851 (  0.9868) /_  -35.9
60                 (224)    2          0.11447 (  0.9532) /_ -154.7
60                 (225)    3          0.11842 (  0.9861) /_   86.4

ELEMENT = "Line.LINE_72"
65                 (196)    1          0.11853 (  0.9871) /_  -35.8
65                 (197)    2           0.1145 (  0.9534) /_ -154.7
65                 (198)    3          0.11842 (  0.9861) /_   86.4
------------
70                 (226)    1          0.11853 (  0.9871) /_  -35.8
70                 (227)    2          0.11447 (  0.9532) /_ -154.7
70                 (228)    3          0.11839 (  0.9859) /_   86.4

ELEMENT = "Line.LINE_73"
76                 ( 37)    1          0.11949 (   0.995) /_  -35.2
76                 ( 38)    2          0.11611 (  0.9669) /_ -155.1
76                 ( 39)    3          0.11793 (   0.982) /_   86.3
------------
77                 (229)    1          0.11928 (  0.9933) /_  -35.2
77                 (230)    2          0.11598 (  0.9658) /_ -155.2
77                 (231)    3          0.11759 (  0.9792) /_   86.2

ELEMENT = "Line.LINE_74"
77                 (229)    1          0.11928 (  0.9933) /_  -35.2
77                 (230)    2          0.11598 (  0.9658) /_ -155.2
77                 (231)    3          0.11759 (  0.9792) /_   86.2
------------
78                 (232)    1          0.11913 (   0.992) /_  -35.2
78                 (233)    2           0.1159 (  0.9651) /_ -155.2
78                 (234)    3          0.11736 (  0.9773) /_   86.2

ELEMENT = "Line.LINE_75"
78                 (232)    1          0.11913 (   0.992) /_  -35.2
78                 (233)    2           0.1159 (  0.9651) /_ -155.2
78                 (234)    3          0.11736 (  0.9773) /_   86.2
------------
79                 (235)    1          0.11902 (  0.9911) /_  -35.1
79                 (236)    2          0.11586 (  0.9648) /_ -155.2
79                 (237)    3          0.11722 (  0.9761) /_   86.2

ELEMENT = "Line.LINE_76"
79                 (235)    1          0.11902 (  0.9911) /_  -35.1
79                 (236)    2          0.11586 (  0.9648) /_ -155.2
79                 (237)    3          0.11722 (  0.9761) /_   86.2
------------
80                 (238)    1          0.11897 (  0.9907) /_  -35.1
80                 (239)    2          0.11586 (  0.9648) /_ -155.2
80                 (240)    3          0.11717 (  0.9757) /_   86.2

ELEMENT = "Line.LINE_77"
76                 ( 37)    1          0.11949 (   0.995) /_  -35.2
76                 ( 38)    2          0.11611 (  0.9669) /_ -155.1
76                 ( 39)    3          0.11793 (   0.982) /_   86.3
------------
71                 (241)    1          0.11949 (   0.995) /_  -35.2
71                 (242)    2          0.11608 (  0.9666) /_ -155.1
71                 (243)    3           0.1179 (  0.9818) /_   86.3

ELEMENT = "Line.LINE_78"
76                 ( 37)    1          0.11949 (   0.995) /_  -35.2
76                 ( 38)    2          0.11611 (  0.9669) /_ -155.1
76                 ( 39)    3          0.11793 (   0.982) /_   86.3
------------
81                 (244)    1          0.11946 (  0.9948) /_  -35.2
81                 (245)    2          0.11611 (  0.9669) /_ -155.1
81                 (246)    3           0.1179 (  0.9818) /_   86.3

ELEMENT = "Line.LINE_79"
77                 (229)    1          0.11928 (  0.9933) /_  -35.2
77                 (230)    2          0.11598 (  0.9658) /_ -155.2
77                 (231)    3          0.11759 (  0.9792) /_   86.2
------------
72                 (247)    1          0.11928 (  0.9933) /_  -35.2
72                 (248)    2          0.11596 (  0.9656) /_ -155.2
72                 (249)    3          0.11757 (   0.979) /_   86.2

ELEMENT = "Line.LINE_80"
77                 (229)    1          0.11928 (  0.9933) /_  -35.2
77                 (230)    2          0.11598 (  0.9658) /_ -155.2
77                 (231)    3          0.11759 (  0.9792) /_   86.2
------------
82                 (250)    1          0.11925 (   0.993) /_  -35.2
82                 (251)    2          0.11598 (  0.9658) /_ -155.2
82                 (252)    3          0.11757 (   0.979) /_   86.2

ELEMENT = "Line.LINE_81"
78                 (232)    1          0.11913 (   0.992) /_  -35.2
78                 (233)    2           0.1159 (  0.9651) /_ -155.2
78                 (234)    3          0.11736 (  0.9773) /_   86.2
------------
73                 (253)    1          0.11913 (   0.992) /_  -35.2
73                 (254)    2          0.11587 (  0.9649) /_ -155.2
73                 (255)    3          0.11733 (   0.977) /_   86.2

ELEMENT = "Line.LINE_82"
78                 (232)    1          0.11913 (   0.992) /_  -35.2
78                 (233)    2           0.1159 (  0.9651) /_ -155.2
78                 (234)    3          0.11736 (  0.9773) /_   86.2
------------
83                 (256)    1           0.1191 (  0.9917) /_  -35.1
83                 (257)    2           0.1159 (  0.9651) /_ -155.2
83                 (258)    3          0.11733 (   0.977) /_   86.2

ELEMENT = "Line.LINE_83"
79                 (235)    1          0.11902 (  0.9911) /_  -35.1
79                 (236)    2          0.11586 (  0.9648) /_ -155.2
79                 (237)    3          0.11722 (  0.9761) /_   86.2
------------
74                 (259)    1          0.11902 (  0.9911) /_  -35.1
74                 (260)    2          0.11583 (  0.9646) /_ -155.2
74                 (261)    3          0.11719 (  0.9758) /_   86.2

ELEMENT = "Line.LINE_84"
79                 (235)    1          0.11902 (  0.9911) /_  -35.1
79                 (236)    2          0.11586 (  0.9648) /_ -155.2
79                 (237)    3          0.11722 (  0.9761) /_   86.2
------------
84                 (262)    1          0.11899 (  0.9909) /_  -35.1
84                 (263)    2          0.11586 (  0.9648) /_ -155.2
84                 (264)    3          0.11719 (  0.9758) /_   86.2

ELEMENT = "Line.LINE_85"
80                 (238)    1          0.11897 (  0.9907) /_  -35.1
80                 (239)    2          0.11586 (  0.9648) /_ -155.2
80                 (240)    3          0.11717 (  0.9757) /_   86.2
------------
75                 (265)    1          0.11894 (  0.9904) /_  -35.1
75                 (266)    2          0.11586 (  0.9648) /_ -155.2
75                 (267)    3          0.11714 (  0.9755) /_   86.2

ELEMENT = "Transformer.T0"
UTILITY_COMPANY    (  1)    1           5.7733 (   48.08) /_    0.0
UTILITY_COMPANY    (  2)    2           5.7733 (   48.08) /_ -120.0
UTILITY_COMPANY    (  3)    3           5.7735 (   48.08) /_  120.0
UTILITY_COMPANY    (  0)    0                0 (       0) /_    0.0
------------
MAIN_SWITCH_PANEL  (  4)    1          0.27661 (   2.303) /_   -0.7
MAIN_SWITCH_PANEL  (  5)    2          0.27628 (   2.301) /_ -120.5
MAIN_SWITCH_PANEL  (  6)    3          0.27733 (   2.309) /_  119.5
MAIN_SWITCH_PANEL  (  0)    0                0 (       0) /_    0.0

ELEMENT = "Transformer.T1"
MAIN_SWITCH_PANEL  (  4)    1          0.27661 (   2.303) /_   -0.7
MAIN_SWITCH_PANEL  (  5)    2          0.27628 (   2.301) /_ -120.5
MAIN_SWITCH_PANEL  (  6)    3          0.27733 (   2.309) /_  119.5
MAIN_SWITCH_PANEL  (  0)    0                0 (       0) /_    0.0
------------
SWITCH_PANEL_1     ( 10)    1          0.12073 (   1.005) /_  -35.0
SWITCH_PANEL_1     ( 11)    2          0.11724 (  0.9763) /_ -154.8
SWITCH_PANEL_1     ( 12)    3          0.11943 (  0.9945) /_   86.5
SWITCH_PANEL_1     (  0)    0                0 (       0) /_    0.0

ELEMENT = "Transformer.T2"
MAIN_SWITCH_PANEL  (  4)    1          0.27661 (   2.303) /_   -0.7
MAIN_SWITCH_PANEL  (  5)    2          0.27628 (   2.301) /_ -120.5
MAIN_SWITCH_PANEL  (  6)    3          0.27733 (   2.309) /_  119.5
MAIN_SWITCH_PANEL  (  0)    0                0 (       0) /_    0.0
------------
SWITCH_PANEL_2     (268)    1          0.12012 (       1) /_  -30.7
SWITCH_PANEL_2     (269)    2          0.11967 (  0.9965) /_ -150.6
SWITCH_PANEL_2     (270)    3          0.11998 (  0.9991) /_   89.5
SWITCH_PANEL_2     (  0)    0                0 (       0) /_    0.0

= = = = = = = = = = = = = = = = = = =  = = = = = = = = = = =  = =

Power Conversion Elements

Bus               (node ref)  Phase    Magnitude, kV (pu)    Angle

ELEMENT = "Load.DCFC"
DCFC               (  7)    1          0.27661 (   2.303) /_   -0.7
DCFC               (  8)    2          0.27628 (   2.301) /_ -120.5
DCFC               (  9)    3          0.27733 (   2.309) /_  119.5
DCFC               (  0)    0                0 (       0) /_    0.0

ELEMENT = "Load.SWITCH_PANEL_2"
SWITCH_PANEL_2     (268)    1          0.12012 (       1) /_  -30.7
SWITCH_PANEL_2     (269)    2          0.11967 (  0.9965) /_ -150.6
SWITCH_PANEL_2     (270)    3          0.11998 (  0.9991) /_   89.5

ELEMENT = "Load.CA-148"
1                  ( 49)    1          0.12014 (       1) /_  -35.1
1                  ( 50)    2          0.11663 (  0.9712) /_ -154.8

ELEMENT = "Load.CA-149"
2                  ( 55)    1          0.12002 (  0.9994) /_  -35.2
2                  ( 56)    2          0.11652 (  0.9703) /_ -154.8

ELEMENT = "Load.CA-212"
3                  ( 61)    1          0.11992 (  0.9986) /_  -35.2
3                  ( 62)    2          0.11647 (  0.9699) /_ -154.8

ELEMENT = "Load.CA-213"
4                  ( 67)    1          0.11987 (  0.9982) /_  -35.2
4                  ( 68)    2          0.11644 (  0.9696) /_ -154.8

ELEMENT = "Load.CA-303"
9                  ( 53)    2          0.11663 (  0.9712) /_ -154.8
9                  ( 54)    3          0.11899 (  0.9909) /_   86.5

ELEMENT = "Load.CA-304"
10                 ( 59)    2          0.11653 (  0.9703) /_ -154.8
10                 ( 60)    3          0.11892 (  0.9902) /_   86.5

ELEMENT = "Load.CA-305"
11                 ( 66)    3          0.11887 (  0.9899) /_   86.5
11                 ( 64)    1          0.11992 (  0.9986) /_  -35.2

ELEMENT = "Load.CA-306"
12                 ( 72)    3          0.11885 (  0.9897) /_   86.4
12                 ( 70)    1          0.11987 (  0.9981) /_  -35.2

ELEMENT = "Load.CA-307"
13                 ( 82)    1          0.12014 (       1) /_  -35.1
13                 ( 83)    2          0.11663 (  0.9712) /_ -154.8

ELEMENT = "Load.CA-308"
14                 ( 88)    1          0.12002 (  0.9994) /_  -35.2
14                 ( 89)    2          0.11652 (  0.9703) /_ -154.8

ELEMENT = "Load.CA-309"
15                 ( 94)    1          0.11992 (  0.9986) /_  -35.2
15                 ( 95)    2          0.11647 (  0.9699) /_ -154.8

ELEMENT = "Load.CA-310"
16                 (100)    1          0.11987 (  0.9982) /_  -35.2
16                 (101)    2          0.11644 (  0.9696) /_ -154.8

ELEMENT = "Load.CA-311"
21                 ( 86)    2          0.11663 (  0.9712) /_ -154.8
21                 ( 87)    3          0.11899 (  0.9909) /_   86.5

ELEMENT = "Load.CA-312"
22                 ( 92)    2          0.11653 (  0.9703) /_ -154.8
22                 ( 93)    3          0.11892 (  0.9902) /_   86.5

ELEMENT = "Load.CA-313"
23                 ( 99)    3          0.11887 (  0.9899) /_   86.5
23                 ( 97)    1          0.11992 (  0.9986) /_  -35.2

ELEMENT = "Load.CA-314"
24                 (105)    3          0.11885 (  0.9897) /_   86.4
24                 (103)    1          0.11987 (  0.9981) /_  -35.2

ELEMENT = "Load.CA-315"
27                 (118)    1          0.11921 (  0.9927) /_  -35.6
27                 (119)    2          0.11544 (  0.9613) /_ -154.8

ELEMENT = "Load.CA-316"
28                 (124)    1           0.1189 (  0.9901) /_  -35.7
28                 (125)    2          0.11505 (   0.958) /_ -154.8

ELEMENT = "Load.CA-317"
29                 (130)    1          0.11868 (  0.9883) /_  -35.8
29                 (131)    2          0.11476 (  0.9556) /_ -154.7

ELEMENT = "Load.CA-318"
30                 (136)    1          0.11855 (  0.9872) /_  -35.8
30                 (137)    2          0.11456 (   0.954) /_ -154.7

ELEMENT = "Load.CA-319"
31                 (142)    1          0.11851 (  0.9868) /_  -35.9
31                 (143)    2          0.11447 (  0.9532) /_ -154.7

ELEMENT = "Load.CA-320"
37                 (121)    1          0.11921 (  0.9927) /_  -35.6
37                 (122)    2          0.11544 (  0.9613) /_ -154.8

ELEMENT = "Load.CA-321"
38                 (127)    1           0.1189 (  0.9901) /_  -35.7
38                 (128)    2          0.11505 (   0.958) /_ -154.8

ELEMENT = "Load.CA-322"
39                 (133)    1          0.11868 (  0.9883) /_  -35.8
39                 (134)    2          0.11476 (  0.9556) /_ -154.7

ELEMENT = "Load.CA-323"
40                 (139)    1          0.11855 (  0.9872) /_  -35.8
40                 (140)    2          0.11456 (   0.954) /_ -154.7

ELEMENT = "Load.CA-324"
41                 (146)    2          0.11447 (  0.9532) /_ -154.7
41                 (147)    3          0.11839 (  0.9859) /_   86.4

ELEMENT = "Load.CA-325"
42                 (161)    2          0.11608 (  0.9666) /_ -155.1
42                 (162)    3           0.1179 (  0.9818) /_   86.3

ELEMENT = "Load.CA-326"
43                 (167)    2          0.11596 (  0.9656) /_ -155.2
43                 (168)    3          0.11757 (   0.979) /_   86.2

ELEMENT = "Load.CA-327"
44                 (173)    2          0.11587 (  0.9649) /_ -155.2
44                 (174)    3          0.11733 (   0.977) /_   86.2

ELEMENT = "Load.CA-489"
45                 (179)    2          0.11583 (  0.9646) /_ -155.2
45                 (180)    3          0.11719 (  0.9758) /_   86.2

ELEMENT = "Load.CA-490"
46                 (186)    3          0.11714 (  0.9755) /_   86.2
46                 (184)    1          0.11894 (  0.9904) /_  -35.1

ELEMENT = "Load.CA-491"
52                 (165)    3           0.1179 (  0.9818) /_   86.3
52                 (163)    1          0.11946 (  0.9948) /_  -35.2

ELEMENT = "Load.CA-492"
53                 (171)    3          0.11757 (   0.979) /_   86.2
53                 (169)    1          0.11925 (   0.993) /_  -35.2

ELEMENT = "Load.CA-493"
54                 (177)    3          0.11733 (   0.977) /_   86.2
54                 (175)    1           0.1191 (  0.9917) /_  -35.1

ELEMENT = "Load.CA-494"
55                 (183)    3          0.11719 (  0.9758) /_   86.2
55                 (181)    1          0.11899 (  0.9909) /_  -35.1

ELEMENT = "Load.CA-495"
56                 (199)    1          0.11921 (  0.9927) /_  -35.6
56                 (200)    2          0.11544 (  0.9613) /_ -154.8

ELEMENT = "Load.CA-496"
57                 (205)    1           0.1189 (  0.9901) /_  -35.7
57                 (206)    2          0.11505 (   0.958) /_ -154.8

ELEMENT = "Load.CA-497"
58                 (211)    1          0.11868 (  0.9883) /_  -35.8
58                 (212)    2          0.11476 (  0.9556) /_ -154.7

ELEMENT = "Load.CA-498"
59                 (217)    1          0.11855 (  0.9872) /_  -35.8
59                 (218)    2          0.11456 (   0.954) /_ -154.7

ELEMENT = "Load.CA-499"
60                 (223)    1          0.11851 (  0.9868) /_  -35.9
60                 (224)    2          0.11447 (  0.9532) /_ -154.7

ELEMENT = "Load.CA-500"
66                 (202)    1          0.11921 (  0.9927) /_  -35.6
66                 (203)    2          0.11544 (  0.9613) /_ -154.8

ELEMENT = "Load.CA-501"
67                 (208)    1           0.1189 (  0.9901) /_  -35.7
67                 (209)    2          0.11505 (   0.958) /_ -154.8

ELEMENT = "Load.CA-502"
68                 (214)    1          0.11868 (  0.9883) /_  -35.8
68                 (215)    2          0.11476 (  0.9556) /_ -154.7

ELEMENT = "Load.CA-503"
69                 (220)    1          0.11855 (  0.9872) /_  -35.8
69                 (221)    2          0.11456 (   0.954) /_ -154.7

ELEMENT = "Load.CA-504"
70                 (227)    2          0.11447 (  0.9532) /_ -154.7
70                 (228)    3          0.11839 (  0.9859) /_   86.4

ELEMENT = "Load.CA-505"
71                 (242)    2          0.11608 (  0.9666) /_ -155.1
71                 (243)    3           0.1179 (  0.9818) /_   86.3

ELEMENT = "Load.CA-506"
72                 (248)    2          0.11596 (  0.9656) /_ -155.2
72                 (249)    3          0.11757 (   0.979) /_   86.2

ELEMENT = "Load.CA-507"
73                 (254)    2          0.11587 (  0.9649) /_ -155.2
73                 (255)    3          0.11733 (   0.977) /_   86.2

ELEMENT = "Load.CA-508"
74                 (260)    2          0.11583 (  0.9646) /_ -155.2
74                 (261)    3          0.11719 (  0.9758) /_   86.2

ELEMENT = "Load.CA-509"
75                 (267)    3          0.11714 (  0.9755) /_   86.2
75                 (265)    1          0.11894 (  0.9904) /_  -35.1

ELEMENT = "Load.CA-510"
81                 (246)    3           0.1179 (  0.9818) /_   86.3
81                 (244)    1          0.11946 (  0.9948) /_  -35.2

ELEMENT = "Load.CA-511"
82                 (252)    3          0.11757 (   0.979) /_   86.2
82                 (250)    1          0.11925 (   0.993) /_  -35.2

ELEMENT = "Load.CA-512"
83                 (258)    3          0.11733 (   0.977) /_   86.2
83                 (256)    1           0.1191 (  0.9917) /_  -35.1

ELEMENT = "Load.CA-513"
84                 (264)    3          0.11719 (  0.9758) /_   86.2
84                 (262)    1          0.11899 (  0.9909) /_  -35.1

